$DATA1 SOURCE='PrimeSim HSPICE' VERSION='R-2020.12-SP2 linux64' PARAM_COUNT=0
.TITLE '*title'
 delaytimehl      delaytimelh      temper           alter#          
  2.317e-11        5.972e-10        -40.0000        1               
