$DATA1 SOURCE='PrimeSim HSPICE' VERSION='R-2020.12-SP2 linux64' PARAM_COUNT=0
.TITLE '*title'
 delaytimehl      delaytimelh      temper           alter#          
  1.349e-10        1.378e-10         25.0000        1               
  3.114e-10        2.485e-10        125.0000        2               
  2.978e-10        6.165e-11         25.0000        3               
  1.349e-10        1.378e-10         25.0000        4               
  1.647e-10        8.597e-11         25.0000        5               
  9.929e-11        1.252e-10        -40.0000        6               
  2.796e-10        1.295e-09        125.0000        7               
  2.369e-10        5.996e-10         25.0000        8               
  7.178e-11        6.582e-10         25.0000        9               
  9.888e-11        6.206e-10         25.0000        10              
  3.077e-11        5.688e-10        -40.0000        11              
  2.766e-10        1.528e-09        125.0000        12              
  2.248e-10        6.868e-10         25.0000        13              
  6.251e-11        7.143e-10         25.0000        14              
  9.250e-11        7.039e-10         25.0000        15              
  2.317e-11        5.972e-10        -40.0000        16              
