$DATA1 SOURCE='PrimeSim HSPICE' VERSION='R-2020.12-SP2 linux64' PARAM_COUNT=0
.TITLE '*title'
 delaytimehl      delaytimelh      temper           alter#          
  4.769e-11        2.052e-10         25.0000        1               
