$DATA1 SOURCE='PrimeSim HSPICE' VERSION='R-2020.12-SP2 linux64' PARAM_COUNT=0
.TITLE '* final project'
 avgpower0        access           temper           alter#          
 -9.446e-04        2.126e-09         25.0000        1               
