$DATA1 SOURCE='PrimeSim HSPICE' VERSION='R-2020.12-SP2 linux64' PARAM_COUNT=0
.TITLE '* final project'
 avgpower0        access           temper           alter#          
 -6.489e-04        2.739e-09         25.0000        4               
