$DATA1 SOURCE='PrimeSim HSPICE' VERSION='R-2020.12-SP2 linux64' PARAM_COUNT=0
.TITLE '$lab7'
 vgs              id               vds              temper          
 alter#          
    2.0000         2.878e-04          1.5470          25.0000       
1               
