$DATA1 SOURCE='PrimeSim HSPICE' VERSION='R-2020.12-SP2 linux64' PARAM_COUNT=1
$OPTION MEASFORM=1
$index=1 is a nominal sample in Monte Carlo.
.TITLE '*title'
index pwr tp temper alter#
1  2.041796e-05  4.147300e-11   25.0000000 1
2  2.033994e-05  4.060257e-11   25.0000000 1
3  2.077372e-05  4.524399e-11   25.0000000 1
4  2.031670e-05  4.177137e-11   25.0000000 1
5  2.061283e-05  4.214816e-11   25.0000000 1
6  2.046183e-05  3.981865e-11   25.0000000 1
7  2.082380e-05  4.534605e-11   25.0000000 1
8  2.020967e-05  4.165012e-11   25.0000000 1
9  2.059169e-05  4.094245e-11   25.0000000 1
10  2.063129e-05  4.220317e-11   25.0000000 1
11  2.035432e-05  4.152774e-11   25.0000000 1
12  2.043925e-05  4.194996e-11   25.0000000 1
13  2.032441e-05  4.107279e-11   25.0000000 1
14  2.016638e-05  4.091795e-11   25.0000000 1
15  2.051224e-05  4.175575e-11   25.0000000 1
16  2.031718e-05  4.149183e-11   25.0000000 1
17  2.062518e-05  4.117756e-11   25.0000000 1
18  2.054478e-05  4.185220e-11   25.0000000 1
19  2.057139e-05  4.205850e-11   25.0000000 1
20  2.029422e-05  4.143894e-11   25.0000000 1
21  2.030208e-05  4.125492e-11   25.0000000 1
22  2.054678e-05  4.215593e-11   25.0000000 1
23  2.045465e-05  4.132404e-11   25.0000000 1
24  2.056900e-05  4.133553e-11   25.0000000 1
25  2.038646e-05  4.123921e-11   25.0000000 1
26  2.042165e-05  4.159971e-11   25.0000000 1
27  2.057306e-05  4.076885e-11   25.0000000 1
28  2.033305e-05  4.201474e-11   25.0000000 1
29  2.027312e-05  4.200565e-11   25.0000000 1
30  2.097700e-05  4.554337e-11   25.0000000 1
31  2.033668e-05  4.299438e-11   25.0000000 1
32  2.068025e-05  4.398600e-11   25.0000000 1
33  2.057969e-05  4.057584e-11   25.0000000 1
34  2.025922e-05  4.169305e-11   25.0000000 1
35  2.027967e-05  4.150414e-11   25.0000000 1
36  2.041802e-05  4.130581e-11   25.0000000 1
37  2.087048e-05  4.514913e-11   25.0000000 1
38  2.039773e-05  4.085593e-11   25.0000000 1
39  2.026687e-05  4.119885e-11   25.0000000 1
40  2.042196e-05  4.150044e-11   25.0000000 1
41  2.057516e-05  4.191946e-11   25.0000000 1
42  2.069602e-05  4.236924e-11   25.0000000 1
43  2.068084e-05  4.350622e-11   25.0000000 1
44  2.019069e-05  4.158887e-11   25.0000000 1
45  2.027838e-05  4.112371e-11   25.0000000 1
46  2.048554e-05  4.152721e-11   25.0000000 1
47  2.046177e-05  4.120111e-11   25.0000000 1
48  2.080114e-05  4.527596e-11   25.0000000 1
49  2.028482e-05  4.076232e-11   25.0000000 1
50  2.051838e-05  4.064134e-11   25.0000000 1
51  2.056247e-05  4.145516e-11   25.0000000 1
52  2.029566e-05  4.158955e-11   25.0000000 1
53  2.042498e-05  4.026580e-11   25.0000000 1
54  2.073550e-05  4.440133e-11   25.0000000 1
55  2.030767e-05  4.182820e-11   25.0000000 1
56  2.044361e-05  4.113967e-11   25.0000000 1
57  2.034805e-05  4.089837e-11   25.0000000 1
58  2.030650e-05  4.151541e-11   25.0000000 1
59  2.072296e-05  4.402533e-11   25.0000000 1
60  2.071934e-05  4.518976e-11   25.0000000 1
61  2.052671e-05  4.081705e-11   25.0000000 1
62  2.054688e-05  4.234515e-11   25.0000000 1
63  2.032024e-05  4.138723e-11   25.0000000 1
64  2.034738e-05  4.207851e-11   25.0000000 1
65  2.054628e-05  4.154614e-11   25.0000000 1
66  2.021170e-05  4.069733e-11   25.0000000 1
67  2.031502e-05  4.127828e-11   25.0000000 1
68  2.052858e-05  4.213016e-11   25.0000000 1
69  2.031965e-05  4.045213e-11   25.0000000 1
70  2.031182e-05  4.126682e-11   25.0000000 1
71  2.050781e-05  4.181679e-11   25.0000000 1
72  2.036439e-05  4.159756e-11   25.0000000 1
73  2.045034e-05  4.170945e-11   25.0000000 1
74  2.033438e-05  3.992909e-11   25.0000000 1
75  2.049249e-05  4.119535e-11   25.0000000 1
76  2.053541e-05  4.125330e-11   25.0000000 1
77  2.022236e-05  4.066875e-11   25.0000000 1
78  2.047270e-05  4.005537e-11   25.0000000 1
79  2.030271e-05  4.167972e-11   25.0000000 1
80  2.053141e-05  4.247913e-11   25.0000000 1
81  2.069429e-05  4.205988e-11   25.0000000 1
82  2.021022e-05  4.076632e-11   25.0000000 1
83  2.033463e-05  4.122146e-11   25.0000000 1
84  2.079823e-05  4.454042e-11   25.0000000 1
85  2.060370e-05  4.111864e-11   25.0000000 1
86  2.061689e-05  4.188707e-11   25.0000000 1
87  2.030654e-05  4.207481e-11   25.0000000 1
88  2.042824e-05  4.111285e-11   25.0000000 1
89  2.057826e-05  4.320433e-11   25.0000000 1
90  2.056779e-05  4.226414e-11   25.0000000 1
91  2.026728e-05  4.142399e-11   25.0000000 1
92  2.051884e-05  4.211123e-11   25.0000000 1
93  2.045396e-05  4.078994e-11   25.0000000 1
94  2.017659e-05  4.106884e-11   25.0000000 1
95  2.080173e-05  4.546840e-11   25.0000000 1
96  2.029592e-05  4.204271e-11   25.0000000 1
97  2.083390e-05  4.233918e-11   25.0000000 1
98  2.021735e-05  4.135456e-11   25.0000000 1
99  2.107946e-05  4.439897e-11   25.0000000 1
100  2.033096e-05  4.180370e-11   25.0000000 1
