$DATA1 SOURCE='PrimeSim HSPICE' VERSION='R-2020.12-SP2
$OPTION MEASFORM=1
$ This file format is subject to change 
$ The seperator is :@:                  
$index=1 is a nominal sample in Monte Carlo.
$option ignore_global_variation = no              
$option ignore_local_variation = no               
$option ignore_aging_variation = yes              
$option ignore_interconnect_variation = no        
$option ignore_spatial_variation = no   
$option ignore_variation = no 
$option sampling_method  = srs                  
$option normal_limit     =      20.0000       
$option replicates       =   1      
$option random_generator = MCG                          
$option seed             =       1  
$option stream           =   1      
$option output_sigma_value =  1     
$option use_agauss_format = yes     
$option screening_method = pearson  
$Global Variable number:        0                               
$Local Variable number:        9                                
$Aging Variable number:        0                                
.TITLE '*title'
index x1.mm19:@:****:@:vth:@:ILNC x1.mm17:@:****:@:vth:@:ILNC x1.mm18:@:****:@:vth:@:ILNC x1.mm16:@:****:@:vth:@:ILNC x1.mm15:@:****:@:vth:@:ILNC x1.mm13:@:****:@:vth:@:ILNC x1.mm12:@:****:@:vth:@:ILNC x1.mm9:@:****:@:vth:@:ILNC x1.mm11:@:****:@:vth:@:ILNC
1    0.    0.    0.    0.    0.    0.    0.    0.    0. 
2   -0.8014   -0.8294   -0.2677    0.2150    1.6757    0.8946    0.2014    1.0447   -1.7987 
3    2.7742    0.6560   -1.2719   -0.4937    0.4482    0.3209    1.4379   -0.5189   -0.3780 
4    0.5518    0.3415    0.2900   -0.1841    0.8485   -0.7446   -1.2438    0.6697    0.6131 
5   -1.1911    0.3824    0.9694   -1.8849    0.6073    0.8013    0.2451   -1.3209    0.8362 
6   -2.4502   -1.2897    0.4527    0.7240   -0.7223   -0.2172   -0.5204   -1.5757    1.4914 
7    1.8448   -0.2509    1.7263   -0.6471    0.4233   -1.3806   -0.6952   -0.9646    0.3830 
8    0.6670    1.6099   -0.4127    0.7432    1.0667    0.5062   -0.6887    0.1982   -0.9693 
9   -1.3396   -0.4554   -0.8909   -1.3938   -0.6278   -0.4497    1.4317   -0.2580    1.7744 
10 -5.788e-02   -0.6133    0.9223   -1.4350   -0.5781 -5.277e-02    0.9878    0.4383    0.7875 
11    0.5180   -0.6764    0.3506   -0.2638    0.3708    0.1919    0.6274   -0.5351    1.5320 
12   -0.6454    1.4374    0.1960   -0.4051    0.9222   -0.2628    1.0165   -0.6328   -0.6784 
13    0.6245    0.3053   -2.2493   -0.9592 -4.215e-02    0.1657   -0.5425   -2.1742   -0.5351 
14    0.6256    0.5162   -0.1516    2.4311    0.2435    1.1689   -0.7225    0.7134    0.4908 
15   -0.3699    0.2538  7.852e-03   -0.8248  9.554e-02    0.7771    0.8217   -0.1622    1.4174 
16   -0.4150    0.7071    0.9122    1.1765    1.3913    2.2676    0.4529    0.3937   -0.1734 
17   -1.1602   -0.9557   -0.4119   -2.1199    0.6712   -0.1575    0.1568    1.9248    1.1457 
18    0.2998   -1.0600    0.4708   -1.5230   -0.6197   -0.8827   -0.9771   -0.7305    1.7038 
19   -1.6127    1.7432    0.1625   -1.6404    1.3187    0.4913    0.5441   -0.5486    0.7632 
20    0.5488   -0.1878    1.2630    1.6970   -0.9334   -0.2942   -0.1629   -1.7493   -1.3562 
21    1.2566   -1.6025   -0.4722   -1.5920    1.4255   -0.3785   -0.4341    0.8754   -0.6114 
22  6.024e-02    0.4087    0.4984   -0.7734   -0.7143   -1.2969   -0.6503   -0.2235   -0.2358 
23   -0.5821 -9.725e-02    0.3892    0.2101   -0.4115   -1.0173    0.8232   -1.4751   -0.4042 
24   -2.2828    1.1920    1.2686    0.4169   -0.2381    0.4594    0.1837   -0.1304    0.4164 
25    0.8075    0.1774   -1.3791   -0.1554   -0.7678    0.4342    0.5586    0.6397   -1.0085 
26    0.1196    0.1942   -1.0305   -1.3497    0.8521   -0.5262    1.5743   -0.2757   -0.8010 
27   -1.3016   -1.4927    0.3603   -0.8279   -0.8611    0.2955   -0.6386   -2.7488    0.5718 
28    1.0946    1.2164   -0.8357   -1.1888    0.7226   -1.1639   -0.5576    0.9979    1.0143 
29    1.0029    1.2415    0.4762    0.5195    0.4417    0.5674    0.4177    0.6897   -3.5265 
30    2.8774   -1.0838   -0.5504   -2.2505   -0.4383   -0.3125   -0.6643   -1.1816    1.7385 
31    0.3563    2.3772    0.8027   -0.8661    1.9169   -0.3514    0.9557   -2.3956    0.4657 
32    1.9581   -1.6238    0.3770    0.2889    1.2459 -1.624e-03    1.0237    1.9011   -0.3195 
33   -1.4811   -0.8804   -0.5602   -0.4393   -0.8307    1.3217    1.4493 -2.126e-02    0.6369 
34    0.2517    1.3023    0.8940    2.0131    0.7522    0.4198    0.2302    1.8744   -1.1595 
35    0.4150    0.7487   -0.4695    0.1727    1.3920    0.3072   -0.4606    1.3191   -0.3804 
36 -4.356e-02   -1.3327    1.0310    0.3634   -0.4219   -0.9783    2.1758   -1.7272    0.3235 
37    1.8672   -0.1768    1.2381   -0.3814   -0.3106   -1.9976   -0.9436    1.3209    0.3313 
38   -0.1690    0.8041   -2.1694    0.2083   -0.8219    0.7920   -0.5271   -0.6906  7.249e-02 
39    0.9510   -0.2776   -0.6695   -0.1948    1.0381    1.9981   -0.3719    1.2708   -0.5630 
40  7.283e-02   -0.9596    0.7860   -0.2319    0.3355    0.4526    0.3293  3.500e-02   -0.1045 
41   -1.0358    1.4622    0.3930   -0.1832   -0.3965   -0.1463    0.6326    0.1878    0.5789 
42   -0.5052    0.1873    0.4201   -2.2865    0.2697    1.1170   -0.7068    1.2105   -1.4554 
43   -0.6319    1.4812    2.8137   -0.9621    0.2624   -0.5882    0.8269   -0.4303 -9.314e-02 
44    1.5016    1.3009   -1.3480    0.3378    0.3183    0.7737    1.1106    1.3650    0.6679 
45    0.6911   -0.8061    0.1572    0.4469 -5.678e-03   -1.7790   -0.7438   -1.2240   -0.5096 
46   -0.9370    0.5669    1.3518    0.8826   -0.7176   -0.2079   -2.1548   -0.2985   -0.5865 
47   -0.6017   -0.1559    0.8312    1.2775   -0.6661  8.786e-02    0.7566    1.4146    0.4081 
48    2.0629    1.3523    1.0694    1.6467   -0.7418    1.5059    0.3894    1.6697    0.1549 
49   -0.5978    0.5625   -0.6288    1.2171    0.7413   -0.8045    0.6256   -1.6896   -0.8767 
50   -1.5392   -0.7140    0.5544    0.3266   -0.5603    1.0344   -1.5931   -0.4694   -1.0142 
51   -0.8456    0.1473    0.3573  1.310e-02   -1.2136 -2.069e-02    1.9081   -2.2428   -1.4405 
52    1.1512  1.561e-02   -0.1239   -0.2154    0.4292   -0.6061    0.4519    1.0420   -0.1211 
53   -0.5650   -2.6990   -0.1688 -9.677e-02    0.7737   -0.3447    0.6290    1.3914   -1.3028 
54    1.6305 -4.494e-02    0.1378    0.1913  4.768e-02   -2.7776    1.4894   -0.2699    0.4337 
55    1.0553   -0.4709    0.7687   -0.8217    1.2295   -1.2026   -0.5205    1.0875   -0.5831 
56   -0.5675    0.5037   -0.5342    0.4701   -0.5155    0.4442    0.3730   -0.4187    1.0182 
57    0.6286   -1.0612   -1.1688   -0.4909   -0.2921   -0.1949   -0.1297   -1.5025   -0.1230 
58    0.1715    0.3857    0.6889    0.9052    0.3841 -1.926e-03   -1.7569   -0.5491   -1.3988 
59    1.8338   -0.4759   -0.7228  8.008e-02  6.718e-02   -1.2185  1.212e-02    0.3275   -1.7622 
60    1.8685    0.7650    1.7341    1.0345    0.4640   -0.9253   -0.5026    0.6285    0.9637 
61   -1.6657   -0.6849    0.1540   -1.0214    0.8057    0.8231   -0.7054    0.4555   -0.1677 
62    0.8842    0.3306   -0.2570   -1.9487   -0.4965    2.0075   -0.5749   -0.8118 -7.169e-02 
63    0.1970    0.3378   -0.8308   -0.7299    1.0560   -0.6257   -1.8989   -1.1258    0.6740 
64    1.1567    0.3258    1.0197    0.2855   -0.2962   -0.2475    2.2170    0.4365    0.8736 
65   -0.7063    0.2109 -3.617e-02   -0.7235  8.297e-02    0.4489    0.1117    1.1054    0.8345 
66    0.3587   -0.9050    0.1564    1.6132    1.3245   -0.4194   -1.2862    2.1047   -0.1811 
67    0.3662    0.2850    0.3046    1.6995   -0.9984   -0.7072  1.168e-02   -0.5227    0.3261 
68   -0.2553    1.3223    0.3496    0.1966   -0.7522    0.3790    1.4046    1.0705    0.6677 
69   -1.1330 -2.268e-02   -0.2268    1.3159    0.1738    1.2931   -0.6703   -1.3070    0.8994 
70   -0.2668    1.0950   -0.3012    1.1969    0.6717   -0.3077    0.8009    0.5143   -0.7955 
71    1.1537   -0.1700   -1.7720   -2.7327   -0.5665    0.2035    0.5650   -0.1509    1.0744 
72 -7.729e-02   -1.1479    1.8107 -5.540e-02    1.5601    0.5866   -0.7793    0.8449  1.034e-03 
73   -0.5466    0.7046    0.1626   -0.5876    0.8145   -0.9306   -0.8437    0.3613    0.2538 
74   -1.4518 -9.744e-02   -1.0285    1.8211   -0.4592   -1.0480    0.9558   -1.5434   -0.8671 
75   -0.3966    0.5981   -1.1395   -0.1502   -1.2118    0.8186   -1.7197   -0.6660    1.9437 
76   -0.9998    1.2645   -0.5158    0.6534   -1.4910    0.8314    0.3143   -0.6822   -0.8768 
77    1.1552   -0.2389   -2.3636   -0.2780    0.6429 -3.372e-02   -1.6528    1.6926   -0.4958 
78   -1.5628   -1.6459   -0.7946   -0.6074    0.6322    0.2733   -0.8568    0.9331    0.5019 
79   -0.2150    2.3440   -0.5030    1.2635    0.4010    0.2762    1.2120   -0.2057  1.560e-02 
80    0.1897    1.0684    0.7257   -0.4897   -0.3903   -0.3430 -3.539e-02    0.7762   -1.1387 
81  6.192e-03    0.2071   -0.8660   -1.8954   -1.2242    0.5793    0.7639    1.2505    0.4629 
82    0.8505   -0.5583   -0.8293    0.9312    0.4903    0.7026    0.7109   -0.1524    0.8872 
83 -5.341e-02    0.5547   -0.3624    0.9428 -5.209e-03   -0.7074    0.6009   -0.5182   -0.2128 
84    1.8437    0.1085   -0.3052  1.574e-02   -0.3765    0.8657  3.644e-02   -0.5694    0.6142 
85   -1.2838    0.7480   -0.6142  1.272e-02   -1.4486 -7.088e-02    0.1710    0.5250   -0.5208 
86   -0.9109 -8.175e-02    0.6539   -1.6007    0.2269   -0.2598   -0.6390    0.9047    0.5997 
87    0.7071    1.0746  9.595e-02   -0.4498    1.1014   -0.4055   -0.1725   -0.2624    0.9978 
88   -0.2047   -1.5027    0.6948 -2.173e-02    0.4076    0.5151    0.3670    0.6007   -0.5759 
89 -3.736e-04    1.1798    2.3817   -0.5072 -2.807e-02   -0.8053    0.3809   -0.1529  2.437e-02 
90   -0.5975    0.9608    0.6651   -1.0657  6.936e-02    0.4538   -0.1964   -1.2254   -1.1650 
91    0.3022    0.2085   -0.1889    0.1553    1.3208   -0.6491    1.4143   -1.1424    1.8289 
92   -0.5480    1.2784    1.2087    0.4938   -0.4486    0.8229   -1.1207    0.1135   -0.4749 
93   -2.1624    0.6985    1.3084    1.4566    0.1926    1.6131   -1.3290    0.6634    1.2280 
94    0.4430    0.3080   -0.5557    0.8038    2.0842   -0.9319    0.1533    0.5462   -0.4495 
95    2.6522    0.5219   -0.3695   -0.5562    0.6305   -0.4896    1.4933    0.4680 -1.818e-02 
96    1.4507   -0.1538    0.8852   -0.3843 -7.401e-02   -0.9784   -1.3158    0.3379    1.0486 
97   -1.0557    0.2298    0.6482   -2.1449   -1.2058   -0.9788   -0.1358    0.9910   -1.1195 
98    0.8537   -0.4116    0.1652  7.187e-03    1.9147    0.1917    0.4302    0.7311    0.1023 
99   -0.5024    2.8214    2.0110   -1.1035   -2.6775    0.4297   -1.7399    0.3022   -1.7405 
100    0.6936    0.4075 -1.158e-02   -0.3492    0.9341   -1.3971   -0.2153    2.3632   -0.1195 
